Version 4
SHEET 1 880 680
WIRE -80 112 -96 112
WIRE 48 112 -80 112
WIRE 240 112 128 112
WIRE 256 112 240 112
WIRE -96 144 -96 112
WIRE 256 160 256 112
WIRE -96 256 -96 224
WIRE 256 256 256 224
WIRE 256 256 -96 256
WIRE -96 272 -96 256
FLAG -96 272 0
FLAG -80 112 Vi
FLAG 240 112 Vo
SYMBOL res 32 128 R270
WINDOW 0 32 56 VTop 2
WINDOW 3 0 56 VBottom 2
SYMATTR InstName R1
SYMATTR Value 25m
SYMBOL cap 240 160 R0
SYMATTR InstName C1
SYMATTR Value 4.7µ
SYMBOL voltage -96 128 R0
WINDOW 123 0 0 Left 0
WINDOW 39 0 0 Left 0
SYMATTR InstName V1
SYMATTR Value PWL(0 0 1u 0 1.000001u 5)
TEXT -16 296 Left 2 !.tran 0 2u 0.95u 0.0001u
